examples/13NodeIEEE/OpenDSS files/IEEE13Nodeckt_VLN_Node.Txt

LINE-GROUND and LINE-LINE VOLTAGES BY BUS & NODE

Bus  Node    VLN (kV)   Angle      pu     Base kV    Node-Node   VLL (kV)  Angle      pu

650  1       2.5215 /_   30.0    1.0498     4.160        1-2     4.3674 /_   60.0    1.0499
   - 2       2.5216 /_  -90.0    1.0499     4.160        2-3     4.3674 /_  -60.0    1.0499
   - 3       2.5214 /_  150.0    1.0498     4.160        3-1     4.3673 /_  180.0    1.0498
633  1       2.3946 /_   27.4   0.99701     4.160        1-2     4.2066 /_   58.5    1.0112
   - 2       2.4865 /_  -91.6    1.0353     4.160        2-3     4.2017 /_  -62.7      1.01
   - 3       2.3573 /_  148.1   0.98146     4.160        3-1     4.1291 /_  178.0   0.99257
634  1       0.2763 /_   27.4   0.99701     0.480        1-2    0.48537 /_   58.5    1.0112
   - 2      0.28691 /_  -91.6    1.0353     0.480        2-3    0.48482 /_  -62.7      1.01
   - 3      0.27199 /_  148.1   0.98146     0.480        3-1    0.47643 /_  178.0   0.99257
671  1       2.3059 /_   24.6   0.96007     4.160        1-2     4.0975 /_   57.7   0.98497
   - 2        2.507 /_  -92.1    1.0438     4.160        2-3     4.1365 /_  -64.6   0.99435
   - 3       2.2357 /_  146.6   0.93085     4.160        3-1     3.9726 /_  176.1   0.95496
645  2        2.469 /_  -91.8     1.028     4.160        2-3     4.1844 /_  -62.6    1.0059
   - 3       2.3592 /_  148.1   0.98225     4.160
646  2       2.4649 /_  -91.8    1.0263     4.160        2-3     4.1741 /_  -62.6    1.0034
   - 3       2.3543 /_  148.2   0.98025     4.160
692  1        2.304 /_   24.5   0.95929     4.160        1-2     4.0953 /_   57.7   0.98446
   - 2       2.5082 /_  -92.1    1.0443     4.160        2-3     4.1359 /_  -64.6   0.99421
   - 3       2.2333 /_  146.6   0.92985     4.160        3-1       3.97 /_  176.0   0.95433
675  1       2.2851 /_   24.4   0.95141     4.160        1-2     4.0802 /_   57.8   0.98081
   - 2       2.5106 /_  -92.2    1.0453     4.160        2-3     4.1275 /_  -64.7   0.99218
   - 3       2.2253 /_  146.7   0.92653     4.160        3-1     3.9512 /_  175.9   0.94981
611  3       2.2203 /_  146.5   0.92445     4.160
652  1       2.2885 /_   24.6   0.95283     4.160
670  1       2.3703 /_   26.5    0.9869     4.160        1-2     4.1764 /_   58.3    1.0039
   - 2       2.4943 /_  -91.8    1.0385     4.160        2-3     4.1837 /_  -63.3    1.0057
   - 3       2.3178 /_  147.5   0.96502     4.160        3-1       4.08 /_  177.4   0.98076
632  1       2.4018 /_   27.5   0.99999     4.160        1-2     4.2171 /_   58.6    1.0137
   - 2        2.491 /_  -91.6    1.0371     4.160        2-3     4.2119 /_  -62.6    1.0125
   - 3       2.3637 /_  148.1   0.98413     4.160        3-1     4.1396 /_  178.0    0.9951
680  1       2.3059 /_   24.6   0.96007     4.160        1-2     4.0975 /_   57.7   0.98497
   - 2        2.507 /_  -92.1    1.0438     4.160        2-3     4.1365 /_  -64.6   0.99435
   - 3       2.2357 /_  146.6   0.93085     4.160        3-1     3.9726 /_  176.1   0.95496
684  1       2.3015 /_   24.5   0.95825     4.160
   - 3        2.228 /_  146.6   0.92765     4.160        3-1     3.9625 /_  176.1   0.95253
